packages/simple-hosting-capacity/simple_hosting_capacity-0.0.1.tar.gz/simple_hosting_capacity-0.0.1/tests/data/Master.dss
Clear

New Circuit.feeder_p1rdt6163-p1rhs0_1247x bus1=p1rdt6163-p1rhs0_1247x pu=1.03 basekV=12.47 R1=1e-05 X1=1e-05 R0=1e-05 X0=1e-05

Redirect LineCodes.dss
Redirect Lines.dss
Redirect Transformers.dss
Redirect Regulators.dss
Redirect Loads.dss
new monitor.m1 element=Transformer.trans_reg_creguladortension(r:p1rdt6163-p1rhs0_1247) mode=0
new monitor.m2 element=Transformer.trans_reg_creguladortension(r:p1rdt6163-p1rhs0_1247) mode=1
new energymeter.m3 Transformer.trans_reg_creguladortension(r:p1rdt6163-p1rhs0_1247)

Set Voltagebases=[0.12, 0.208, 0.48, 7.2, 12.47]

Calcvoltagebases

Buscoords Buscoords.dss
set maxcontroliter=50
